<?xml version="1.0" encoding="UTF-8"?>

<!-- generated on 2023-03-08 16:29:41 by Eclipse SUMO netedit Version 1.16.0
<configuration xmlns:xsi="http://www.w3.org/2001/XMLSchema-instance" xsi:noNamespaceSchemaLocation="http://sumo.dlr.de/xsd/netconvertConfiguration.xsd">

    <input>
        <sumo-net-file value="C:\Users\Sashr\OneDrive\Documents\ME 308 Project\Network.net.xml"/>
    </input>

    <output>
        <output-file value="C:\Users\Sashr\OneDrive\Documents\ME 308 Project\Network.net.xml"/>
    </output>

    <processing>
        <geometry.min-radius.fix.railways value="false"/>
        <geometry.max-grade.fix value="false"/>
        <offset.disable-normalization value="true"/>
        <lefthand value="0"/>
    </processing>

    <junctions>
        <no-turnarounds value="true"/>
        <junctions.corner-detail value="5"/>
        <junctions.limit-turn-speed value="5.50"/>
        <rectangular-lane-cut value="0"/>
    </junctions>

    <pedestrian>
        <walkingareas value="0"/>
    </pedestrian>

</configuration>
-->

<net version="1.16" junctionCornerDetail="5" limitTurnSpeed="5.50" xmlns:xsi="http://www.w3.org/2001/XMLSchema-instance" xsi:noNamespaceSchemaLocation="http://sumo.dlr.de/xsd/net_file.xsd">

    <location netOffset="0.00,0.00" convBoundary="-86.60,-50.00,86.60,100.00" origBoundary="-10000000000.00,-10000000000.00,10000000000.00,10000000000.00" projParameter="!"/>

    <edge id=":J5_0" function="internal">
        <lane id=":J5_0_0" index="0" speed="6.75" length="5.88" shape="-1.60,4.16 -1.78,2.64 -2.30,1.33 -3.18,0.22 -4.40,-0.69"/>
    </edge>
    <edge id=":J5_1" function="internal">
        <lane id=":J5_1_0" index="0" speed="8.31" length="2.40" shape="-1.60,4.16 -1.32,1.78"/>
    </edge>
    <edge id=":J5_6" function="internal">
        <lane id=":J5_6_0" index="0" speed="8.31" length="6.84" shape="-1.32,1.78 -0.50,-0.29 0.88,-2.04 2.80,-3.46"/>
    </edge>
    <edge id=":J5_2" function="internal">
        <lane id=":J5_2_0" index="0" speed="6.75" length="5.88" shape="4.40,-0.69 3.18,0.22 2.30,1.33 1.78,2.64 1.60,4.16"/>
    </edge>
    <edge id=":J5_3" function="internal">
        <lane id=":J5_3_0" index="0" speed="8.31" length="9.24" shape="4.40,-0.69 2.20,0.26 -0.00,0.58 -2.20,0.26 -4.40,-0.69"/>
    </edge>
    <edge id=":J5_4" function="internal">
        <lane id=":J5_4_0" index="0" speed="6.75" length="5.88" shape="-2.80,-3.46 -1.40,-2.86 -0.00,-2.66 1.40,-2.86 2.80,-3.46"/>
    </edge>
    <edge id=":J5_5" function="internal">
        <lane id=":J5_5_0" index="0" speed="8.31" length="9.24" shape="-2.80,-3.46 -0.88,-2.04 0.50,-0.29 1.32,1.78 1.60,4.16"/>
    </edge>

    <edge id="-E1" from="J6" to="J5" priority="-1">
        <lane id="-E1_0" index="0" speed="13.89" length="95.84" shape="-1.60,100.00 -1.60,4.16"/>
    </edge>
    <edge id="-E2" from="J7" to="J5" priority="-1">
        <lane id="-E2_0" index="0" speed="13.89" length="95.84" shape="-85.80,-51.39 -2.80,-3.46"/>
    </edge>
    <edge id="-E3" from="J8" to="J5" priority="-1">
        <lane id="-E3_0" index="0" speed="13.89" length="95.84" shape="87.40,-48.61 4.40,-0.69"/>
    </edge>
    <edge id="E1" from="J5" to="J6" priority="-1">
        <lane id="E1_0" index="0" speed="13.89" length="95.84" shape="1.60,4.16 1.60,100.00"/>
    </edge>
    <edge id="E2" from="J5" to="J7" priority="-1">
        <lane id="E2_0" index="0" speed="13.89" length="95.84" shape="-4.40,-0.69 -87.40,-48.61"/>
    </edge>
    <edge id="E3" from="J5" to="J8" priority="-1">
        <lane id="E3_0" index="0" speed="13.89" length="95.84" shape="2.80,-3.46 85.80,-51.39"/>
    </edge>

    <tlLogic id="J5" type="static" programID="0" offset="0">
        <phase duration="27" state="GrrrGG"/>
        <phase duration="3"  state="yrrryy"/>
        <phase duration="27" state="GGGrrr"/>
        <phase duration="3"  state="yyyrrr"/>
        <phase duration="27" state="rrGGGr"/>
        <phase duration="3"  state="rryyyr"/>
    </tlLogic>

    <junction id="J5" type="traffic_light" x="0.00" y="0.00" incLanes="-E1_0 -E3_0 -E2_0" intLanes=":J5_0_0 :J5_6_0 :J5_2_0 :J5_3_0 :J5_4_0 :J5_5_0" shape="-3.20,4.16 3.20,4.16 3.42,2.75 3.70,2.14 4.09,1.59 4.59,1.11 5.20,0.69 2.00,-4.85 0.67,-4.34 -0.00,-4.27 -0.67,-4.34 -1.33,-4.53 -2.00,-4.85 -5.20,0.69 -4.09,1.59 -3.70,2.14 -3.42,2.75 -3.26,3.42">
        <request index="0" response="000000" foes="001000" cont="0"/>
        <request index="1" response="110000" foes="111000" cont="1"/>
        <request index="2" response="100000" foes="100000" cont="0"/>
        <request index="3" response="100011" foes="100011" cont="0"/>
        <request index="4" response="000010" foes="000010" cont="0"/>
        <request index="5" response="000000" foes="001110" cont="0"/>
    </junction>
    <junction id="J6" type="dead_end" x="0.00" y="100.00" incLanes="E1_0" intLanes="" shape="0.00,100.00 3.20,100.00 0.00,100.00"/>
    <junction id="J7" type="dead_end" x="-86.60" y="-50.00" incLanes="E2_0" intLanes="" shape="-86.60,-50.00 -88.20,-47.23 -86.60,-50.00"/>
    <junction id="J8" type="dead_end" x="86.60" y="-50.00" incLanes="E3_0" intLanes="" shape="86.60,-50.00 85.00,-52.77 86.60,-50.00"/>

    <junction id=":J5_6_0" type="internal" x="-1.32" y="1.78" incLanes=":J5_1_0 -E2_0" intLanes=":J5_3_0 :J5_4_0 :J5_5_0"/>

    <connection from="-E1" to="E2" fromLane="0" toLane="0" via=":J5_0_0" tl="J5" linkIndex="0" dir="r" state="O"/>
    <connection from="-E1" to="E3" fromLane="0" toLane="0" via=":J5_1_0" tl="J5" linkIndex="1" dir="l" state="o"/>
    <connection from="-E2" to="E3" fromLane="0" toLane="0" via=":J5_4_0" tl="J5" linkIndex="4" dir="r" state="O"/>
    <connection from="-E2" to="E1" fromLane="0" toLane="0" via=":J5_5_0" tl="J5" linkIndex="5" dir="l" state="O"/>
    <connection from="-E3" to="E1" fromLane="0" toLane="0" via=":J5_2_0" tl="J5" linkIndex="2" dir="r" state="o"/>
    <connection from="-E3" to="E2" fromLane="0" toLane="0" via=":J5_3_0" tl="J5" linkIndex="3" dir="l" state="o"/>

    <connection from=":J5_0" to="E2" fromLane="0" toLane="0" dir="r" state="M"/>
    <connection from=":J5_1" to="E3" fromLane="0" toLane="0" via=":J5_6_0" dir="l" state="m"/>
    <connection from=":J5_6" to="E3" fromLane="0" toLane="0" dir="l" state="M"/>
    <connection from=":J5_2" to="E1" fromLane="0" toLane="0" dir="r" state="M"/>
    <connection from=":J5_3" to="E2" fromLane="0" toLane="0" dir="l" state="M"/>
    <connection from=":J5_4" to="E3" fromLane="0" toLane="0" dir="r" state="M"/>
    <connection from=":J5_5" to="E1" fromLane="0" toLane="0" dir="l" state="M"/>

</net>
