<configuration>
<input>
<net-file value="test8.net.xml"/>
<route-files value="test8.rou.xml"/>
</input>
<time>
<begin value="0"/>
<end value="3600"/>
</time>
</configuration>